iidm/iidm-xml-converter/src/test/resources/connectablePositionRef_V1_0.xml
<?xml version="1.0" encoding="UTF-8"?>
<iidm:network xmlns:iidm="http://www.powsybl.org/schema/iidm/1_9" xmlns:cp="http://www.itesla_project.eu/schema/iidm/ext/connectable_position/1_0" id="test" caseDate="2016-06-27T12:27:58.535+02:00" forecastDistance="0" sourceFormat="test" minimumValidationLevel="STEADY_STATE_HYPOTHESIS">
    <iidm:substation id="S" country="FR">
        <iidm:voltageLevel id="VL" nominalV="400.0" topologyKind="NODE_BREAKER">
            <iidm:nodeBreakerTopology>
                <iidm:busbarSection id="BBS" node="0"/>
                <iidm:switch id="SW" kind="BREAKER" retained="false" open="false" node1="0" node2="1"/>
            </iidm:nodeBreakerTopology>
            <iidm:generator id="G" energySource="NUCLEAR" minP="10.0" maxP="20.0" voltageRegulatorOn="true" targetP="20.0" targetV="400.0" node="1">
                <iidm:minMaxReactiveLimits minQ="-1.7976931348623157E308" maxQ="1.7976931348623157E308"/>
            </iidm:generator>
        </iidm:voltageLevel>
    </iidm:substation>
    <iidm:substation id="S2" country="FR">
        <iidm:voltageLevel id="VL2" nominalV="400.0" topologyKind="NODE_BREAKER">
            <iidm:nodeBreakerTopology></iidm:nodeBreakerTopology>
        </iidm:voltageLevel>
    </iidm:substation>
    <iidm:line id="L" r="1.0" x="1.0" g1="0.0" b1="0.0" g2="0.0" b2="0.0" node1="2" voltageLevelId1="VL" node2="0" voltageLevelId2="VL2"/>
    <iidm:extension id="G">
        <cp:position>
            <cp:feeder name="G" order="10" direction="TOP"/>
        </cp:position>
    </iidm:extension>
    <iidm:extension id="L">
        <cp:position>
            <cp:feeder1 name="L" order="10" direction="TOP"/>
            <cp:feeder2 name="L" order="20" direction="BOTTOM"/>
        </cp:position>
    </iidm:extension>
</iidm:network>